MODEL 1
REMARK VINA RESULT:    -6.301      0.000      0.000
REMARK INTER + INTRA:          -7.607
REMARK INTER:                  -7.406
REMARK INTRA:                  -0.202
REMARK UNBOUND:                -0.202
REMARK  Name = 
REMARK  3 active torsions:
REMARK  status: ('A' for Active; 'I' for Inactive)
REMARK    1  A    between atoms: C_2  and  C_3
REMARK    2  A    between atoms: C_3  and  C_4
REMARK    3  A    between atoms: C_9  and  O_10
REMARK                            x       y       z     vdW  Elec       q    Type
REMARK                         _______ _______ _______ _____ _____    ______ ____
ROOT
ATOM      1  C   UNL     1      -2.115  -3.821  -4.690  0.00  0.00    +0.000 A 
ATOM      2  C   UNL     1      -2.795  -4.612  -5.594  0.00  0.00    +0.000 A 
ATOM      3  C   UNL     1      -2.234  -5.113  -6.742  0.00  0.00    +0.000 A 
ATOM      4  C   UNL     1      -0.914  -4.811  -7.010  0.00  0.00    +0.000 A 
ATOM      5  O   UNL     1      -0.341  -5.316  -8.172  0.00  0.00    +0.000 OA
ATOM      6  C   UNL     1      -0.178  -4.019  -6.138  0.00  0.00    +0.000 A 
ATOM      7  C   UNL     1      -0.785  -3.540  -4.997  0.00  0.00    +0.000 A 
ENDROOT
BRANCH   6   8
ATOM      8  O   UNL     1       1.150  -3.733  -6.436  0.00  0.00    +0.000 OA
ATOM      9  C   UNL     1       2.226  -4.481  -5.959  0.00  0.00    +0.000 C 
ENDBRANCH   6   8
BRANCH   1  10
ATOM     10  C   UNL     1      -2.729  -3.283  -3.451  0.00  0.00    +0.000 C 
BRANCH  10  12
ATOM     11  C   UNL     1      -4.860  -3.446  -2.137  0.00  0.00    +0.000 C 
ATOM     12  C   UNL     1      -3.786  -4.207  -2.887  0.00  0.00    +0.000 C 
ENDBRANCH  10  12
ENDBRANCH   1  10
TORSDOF 3
ENDMDL
MODEL 2
REMARK VINA RESULT:    -6.178      1.061      2.628
REMARK INTER + INTRA:          -7.463
REMARK INTER:                  -7.285
REMARK INTRA:                  -0.178
REMARK UNBOUND:                -0.202
REMARK  Name = 
REMARK  3 active torsions:
REMARK  status: ('A' for Active; 'I' for Inactive)
REMARK    1  A    between atoms: C_2  and  C_3
REMARK    2  A    between atoms: C_3  and  C_4
REMARK    3  A    between atoms: C_9  and  O_10
REMARK                            x       y       z     vdW  Elec       q    Type
REMARK                         _______ _______ _______ _____ _____    ______ ____
ROOT
ATOM      1  C   UNL     1      -1.848  -3.566  -4.486  0.00  0.00    +0.000 A 
ATOM      2  C   UNL     1      -0.469  -3.543  -4.537  0.00  0.00    +0.000 A 
ATOM      3  C   UNL     1       0.260  -3.909  -5.641  0.00  0.00    +0.000 A 
ATOM      4  C   UNL     1      -0.423  -4.324  -6.766  0.00  0.00    +0.000 A 
ATOM      5  O   UNL     1       0.310  -4.696  -7.888  0.00  0.00    +0.000 OA
ATOM      6  C   UNL     1      -1.812  -4.367  -6.775  0.00  0.00    +0.000 A 
ATOM      7  C   UNL     1      -2.499  -3.989  -5.642  0.00  0.00    +0.000 A 
ENDROOT
BRANCH   6   8
ATOM      8  O   UNL     1      -2.471  -4.790  -7.925  0.00  0.00    +0.000 OA
ATOM      9  C   UNL     1      -3.808  -4.500  -8.198  0.00  0.00    +0.000 C 
ENDBRANCH   6   8
BRANCH   1  10
ATOM     10  C   UNL     1      -2.627  -3.167  -3.288  0.00  0.00    +0.000 C 
BRANCH  10  12
ATOM     11  C   UNL     1      -4.839  -3.562  -2.170  0.00  0.00    +0.000 C 
ATOM     12  C   UNL     1      -3.683  -4.188  -2.925  0.00  0.00    +0.000 C 
ENDBRANCH  10  12
ENDBRANCH   1  10
TORSDOF 3
ENDMDL
MODEL 3
REMARK VINA RESULT:    -5.922      6.841      8.233
REMARK INTER + INTRA:          -7.162
REMARK INTER:                  -6.946
REMARK INTRA:                  -0.216
REMARK UNBOUND:                -0.202
REMARK  Name = 
REMARK  3 active torsions:
REMARK  status: ('A' for Active; 'I' for Inactive)
REMARK    1  A    between atoms: C_2  and  C_3
REMARK    2  A    between atoms: C_3  and  C_4
REMARK    3  A    between atoms: C_9  and  O_10
REMARK                            x       y       z     vdW  Elec       q    Type
REMARK                         _______ _______ _______ _____ _____    ______ ____
ROOT
ATOM      1  C   UNL     1       5.294  -2.152  -6.114  0.00  0.00    +0.000 A 
ATOM      2  C   UNL     1       5.857  -1.686  -4.944  0.00  0.00    +0.000 A 
ATOM      3  C   UNL     1       5.977  -2.439  -3.803  0.00  0.00    +0.000 A 
ATOM      4  C   UNL     1       5.509  -3.738  -3.825  0.00  0.00    +0.000 A 
ATOM      5  O   UNL     1       5.628  -4.506  -2.671  0.00  0.00    +0.000 OA
ATOM      6  C   UNL     1       4.932  -4.262  -4.975  0.00  0.00    +0.000 A 
ATOM      7  C   UNL     1       4.834  -3.467  -6.095  0.00  0.00    +0.000 A 
ENDROOT
BRANCH   6   8
ATOM      8  O   UNL     1       4.469  -5.574  -4.965  0.00  0.00    +0.000 OA
ATOM      9  C   UNL     1       4.911  -6.554  -5.853  0.00  0.00    +0.000 C 
ENDBRANCH   6   8
BRANCH   1  10
ATOM     10  C   UNL     1       5.168  -1.330  -7.344  0.00  0.00    +0.000 C 
BRANCH  10  12
ATOM     11  C   UNL     1       5.536   1.048  -8.053  0.00  0.00    +0.000 C 
ATOM     12  C   UNL     1       6.125  -0.159  -7.351  0.00  0.00    +0.000 C 
ENDBRANCH  10  12
ENDBRANCH   1  10
TORSDOF 3
ENDMDL
MODEL 4
REMARK VINA RESULT:    -5.760      1.541      1.885
REMARK INTER + INTRA:          -6.972
REMARK INTER:                  -6.785
REMARK INTRA:                  -0.187
REMARK UNBOUND:                -0.202
REMARK  Name = 
REMARK  3 active torsions:
REMARK  status: ('A' for Active; 'I' for Inactive)
REMARK    1  A    between atoms: C_2  and  C_3
REMARK    2  A    between atoms: C_3  and  C_4
REMARK    3  A    between atoms: C_9  and  O_10
REMARK                            x       y       z     vdW  Elec       q    Type
REMARK                         _______ _______ _______ _____ _____    ______ ____
ROOT
ATOM      1  C   UNL     1      -0.818  -3.457  -5.253  0.00  0.00    +0.000 A 
ATOM      2  C   UNL     1      -1.152  -2.900  -6.471  0.00  0.00    +0.000 A 
ATOM      3  C   UNL     1      -0.375  -3.009  -7.598  0.00  0.00    +0.000 A 
ATOM      4  C   UNL     1       0.807  -3.717  -7.510  0.00  0.00    +0.000 A 
ATOM      5  O   UNL     1       1.598  -3.830  -8.649  0.00  0.00    +0.000 OA
ATOM      6  C   UNL     1       1.195  -4.300  -6.311  0.00  0.00    +0.000 A 
ATOM      7  C   UNL     1       0.382  -4.163  -5.207  0.00  0.00    +0.000 A 
ENDROOT
BRANCH   6   8
ATOM      8  O   UNL     1       2.392  -5.007  -6.256  0.00  0.00    +0.000 OA
ATOM      9  C   UNL     1       3.483  -4.616  -5.479  0.00  0.00    +0.000 C 
ENDBRANCH   6   8
BRANCH   1  10
ATOM     10  C   UNL     1      -1.664  -3.335  -4.040  0.00  0.00    +0.000 C 
BRANCH  10  12
ATOM     11  C   UNL     1      -3.755  -4.103  -2.886  0.00  0.00    +0.000 C 
ATOM     12  C   UNL     1      -2.995  -4.037  -4.195  0.00  0.00    +0.000 C 
ENDBRANCH  10  12
ENDBRANCH   1  10
TORSDOF 3
ENDMDL
MODEL 5
REMARK VINA RESULT:    -5.678      4.005      6.618
REMARK INTER + INTRA:          -6.876
REMARK INTER:                  -6.642
REMARK INTRA:                  -0.234
REMARK UNBOUND:                -0.202
REMARK  Name = 
REMARK  3 active torsions:
REMARK  status: ('A' for Active; 'I' for Inactive)
REMARK    1  A    between atoms: C_2  and  C_3
REMARK    2  A    between atoms: C_3  and  C_4
REMARK    3  A    between atoms: C_9  and  O_10
REMARK                            x       y       z     vdW  Elec       q    Type
REMARK                         _______ _______ _______ _____ _____    ______ ____
ROOT
ATOM      1  C   UNL     1       4.492  -3.700  -5.729  0.00  0.00    +0.000 A 
ATOM      2  C   UNL     1       4.767  -2.664  -6.597  0.00  0.00    +0.000 A 
ATOM      3  C   UNL     1       4.127  -2.486  -7.799  0.00  0.00    +0.000 A 
ATOM      4  C   UNL     1       3.153  -3.394  -8.161  0.00  0.00    +0.000 A 
ATOM      5  O   UNL     1       2.502  -3.219  -9.378  0.00  0.00    +0.000 OA
ATOM      6  C   UNL     1       2.832  -4.458  -7.328  0.00  0.00    +0.000 A 
ATOM      7  C   UNL     1       3.502  -4.594  -6.131  0.00  0.00    +0.000 A 
ENDROOT
BRANCH   6   8
ATOM      8  O   UNL     1       1.845  -5.356  -7.722  0.00  0.00    +0.000 OA
ATOM      9  C   UNL     1       0.523  -5.290  -7.282  0.00  0.00    +0.000 C 
ENDBRANCH   6   8
BRANCH   1  10
ATOM     10  C   UNL     1       5.188  -3.885  -4.431  0.00  0.00    +0.000 C 
BRANCH  10  12
ATOM     11  C   UNL     1       6.110  -1.845  -3.298  0.00  0.00    +0.000 C 
ATOM     12  C   UNL     1       6.379  -2.965  -4.284  0.00  0.00    +0.000 C 
ENDBRANCH  10  12
ENDBRANCH   1  10
TORSDOF 3
ENDMDL
MODEL 6
REMARK VINA RESULT:    -5.653      5.085      7.838
REMARK INTER + INTRA:          -6.846
REMARK INTER:                  -6.654
REMARK INTRA:                  -0.191
REMARK UNBOUND:                -0.202
REMARK  Name = 
REMARK  3 active torsions:
REMARK  status: ('A' for Active; 'I' for Inactive)
REMARK    1  A    between atoms: C_2  and  C_3
REMARK    2  A    between atoms: C_3  and  C_4
REMARK    3  A    between atoms: C_9  and  O_10
REMARK                            x       y       z     vdW  Elec       q    Type
REMARK                         _______ _______ _______ _____ _____    ______ ____
ROOT
ATOM      1  C   UNL     1       5.526  -1.730  -6.666  0.00  0.00    +0.000 A 
ATOM      2  C   UNL     1       5.693  -2.334  -5.436  0.00  0.00    +0.000 A 
ATOM      3  C   UNL     1       4.999  -3.448  -5.034  0.00  0.00    +0.000 A 
ATOM      4  C   UNL     1       4.083  -3.999  -5.907  0.00  0.00    +0.000 A 
ATOM      5  O   UNL     1       3.378  -5.128  -5.505  0.00  0.00    +0.000 OA
ATOM      6  C   UNL     1       3.873  -3.435  -7.159  0.00  0.00    +0.000 A 
ATOM      7  C   UNL     1       4.593  -2.316  -7.518  0.00  0.00    +0.000 A 
ENDROOT
BRANCH   6   8
ATOM      8  O   UNL     1       2.942  -4.013  -8.017  0.00  0.00    +0.000 OA
ATOM      9  C   UNL     1       1.657  -3.509  -8.214  0.00  0.00    +0.000 C 
ENDBRANCH   6   8
BRANCH   1  10
ATOM     10  C   UNL     1       6.280  -0.525  -7.093  0.00  0.00    +0.000 C 
BRANCH  10  12
ATOM     11  C   UNL     1       6.219   1.555  -8.494  0.00  0.00    +0.000 C 
ATOM     12  C   UNL     1       5.403   0.476  -7.811  0.00  0.00    +0.000 C 
ENDBRANCH  10  12
ENDBRANCH   1  10
TORSDOF 3
ENDMDL
MODEL 7
REMARK VINA RESULT:    -5.464      6.084      7.451
REMARK INTER + INTRA:          -6.624
REMARK INTER:                  -6.340
REMARK INTRA:                  -0.284
REMARK UNBOUND:                -0.202
REMARK  Name = 
REMARK  3 active torsions:
REMARK  status: ('A' for Active; 'I' for Inactive)
REMARK    1  A    between atoms: C_2  and  C_3
REMARK    2  A    between atoms: C_3  and  C_4
REMARK    3  A    between atoms: C_9  and  O_10
REMARK                            x       y       z     vdW  Elec       q    Type
REMARK                         _______ _______ _______ _____ _____    ______ ____
ROOT
ATOM      1  C   UNL     1       4.802  -4.024  -4.911  0.00  0.00    +0.000 A 
ATOM      2  C   UNL     1       5.544  -2.902  -4.602  0.00  0.00    +0.000 A 
ATOM      3  C   UNL     1       5.795  -1.886  -5.491  0.00  0.00    +0.000 A 
ATOM      4  C   UNL     1       5.276  -1.990  -6.765  0.00  0.00    +0.000 A 
ATOM      5  O   UNL     1       5.527  -0.963  -7.670  0.00  0.00    +0.000 OA
ATOM      6  C   UNL     1       4.520  -3.096  -7.134  0.00  0.00    +0.000 A 
ATOM      7  C   UNL     1       4.295  -4.090  -6.207  0.00  0.00    +0.000 A 
ENDROOT
BRANCH   6   8
ATOM      8  O   UNL     1       4.010  -3.170  -8.426  0.00  0.00    +0.000 OA
ATOM      9  C   UNL     1       2.704  -2.813  -8.762  0.00  0.00    +0.000 C 
ENDBRANCH   6   8
BRANCH   1  10
ATOM     10  C   UNL     1       4.535  -5.118  -3.944  0.00  0.00    +0.000 C 
BRANCH  10  12
ATOM     11  C   UNL     1       6.544  -6.619  -4.003  0.00  0.00    +0.000 C 
ATOM     12  C   UNL     1       5.788  -5.563  -3.222  0.00  0.00    +0.000 C 
ENDBRANCH  10  12
ENDBRANCH   1  10
TORSDOF 3
ENDMDL
MODEL 8
REMARK VINA RESULT:    -5.331      7.421      8.626
REMARK INTER + INTRA:          -6.468
REMARK INTER:                  -6.287
REMARK INTRA:                  -0.181
REMARK UNBOUND:                -0.202
REMARK  Name = 
REMARK  3 active torsions:
REMARK  status: ('A' for Active; 'I' for Inactive)
REMARK    1  A    between atoms: C_2  and  C_3
REMARK    2  A    between atoms: C_3  and  C_4
REMARK    3  A    between atoms: C_9  and  O_10
REMARK                            x       y       z     vdW  Elec       q    Type
REMARK                         _______ _______ _______ _____ _____    ______ ____
ROOT
ATOM      1  C   UNL     1       5.913  -3.142  -4.646  0.00  0.00    +0.000 A 
ATOM      2  C   UNL     1       4.962  -3.759  -3.860  0.00  0.00    +0.000 A 
ATOM      3  C   UNL     1       5.103  -5.024  -3.344  0.00  0.00    +0.000 A 
ATOM      4  C   UNL     1       6.261  -5.719  -3.626  0.00  0.00    +0.000 A 
ATOM      5  O   UNL     1       6.409  -7.001  -3.105  0.00  0.00    +0.000 OA
ATOM      6  C   UNL     1       7.255  -5.149  -4.412  0.00  0.00    +0.000 A 
ATOM      7  C   UNL     1       7.068  -3.877  -4.906  0.00  0.00    +0.000 A 
ENDROOT
BRANCH   6   8
ATOM      8  O   UNL     1       8.411  -5.876  -4.677  0.00  0.00    +0.000 OA
ATOM      9  C   UNL     1       8.785  -6.290  -5.956  0.00  0.00    +0.000 C 
ENDBRANCH   6   8
BRANCH   1  10
ATOM     10  C   UNL     1       5.753  -1.774  -5.200  0.00  0.00    +0.000 C 
BRANCH  10  12
ATOM     11  C   UNL     1       5.708  -0.391  -7.292  0.00  0.00    +0.000 C 
ATOM     12  C   UNL     1       5.576  -1.781  -6.702  0.00  0.00    +0.000 C 
ENDBRANCH  10  12
ENDBRANCH   1  10
TORSDOF 3
ENDMDL
MODEL 9
REMARK VINA RESULT:    -5.284      2.064      3.433
REMARK INTER + INTRA:          -6.412
REMARK INTER:                  -6.264
REMARK INTRA:                  -0.148
REMARK UNBOUND:                -0.202
REMARK  Name = 
REMARK  3 active torsions:
REMARK  status: ('A' for Active; 'I' for Inactive)
REMARK    1  A    between atoms: C_2  and  C_3
REMARK    2  A    between atoms: C_3  and  C_4
REMARK    3  A    between atoms: C_9  and  O_10
REMARK                            x       y       z     vdW  Elec       q    Type
REMARK                         _______ _______ _______ _____ _____    ______ ____
ROOT
ATOM      1  C   UNL     1      -0.029  -3.608  -6.501  0.00  0.00    +0.000 A 
ATOM      2  C   UNL     1       0.732  -4.325  -5.600  0.00  0.00    +0.000 A 
ATOM      3  C   UNL     1       2.011  -4.755  -5.854  0.00  0.00    +0.000 A 
ATOM      4  C   UNL     1       2.571  -4.452  -7.078  0.00  0.00    +0.000 A 
ATOM      5  O   UNL     1       3.867  -4.885  -7.340  0.00  0.00    +0.000 OA
ATOM      6  C   UNL     1       1.854  -3.733  -8.026  0.00  0.00    +0.000 A 
ATOM      7  C   UNL     1       0.573  -3.323  -7.725  0.00  0.00    +0.000 A 
ENDROOT
BRANCH   6   8
ATOM      8  O   UNL     1       2.447  -3.444  -9.251  0.00  0.00    +0.000 OA
ATOM      9  C   UNL     1       3.365  -2.411  -9.439  0.00  0.00    +0.000 C 
ENDBRANCH   6   8
BRANCH   1  10
ATOM     10  C   UNL     1      -1.411  -3.147  -6.219  0.00  0.00    +0.000 C 
BRANCH  10  12
ATOM     11  C   UNL     1      -2.336  -3.043  -3.889  0.00  0.00    +0.000 C 
ATOM     12  C   UNL     1      -2.055  -3.923  -5.091  0.00  0.00    +0.000 C 
ENDBRANCH  10  12
ENDBRANCH   1  10
TORSDOF 3
ENDMDL
