
     RDKit          3D

 14 15  0  0  0  0  0  0  0  0999 V2000
  -12.4865  -15.2257    1.3903 O   0  0  0  0  0  0  0  0  0  0  0  0
  -12.7240  -15.5640    1.7059 C   0  0  0  0  0  0  0  0  0  0  0  0
  -12.6825  -15.2127    1.3777 O   0  0  0  0  0  0  0  0  0  0  0  0
  -12.9338  -16.5572    2.5350 C   0  0  0  0  0  0  0  0  0  0  0  0
  -14.2104  -16.7420    2.4464 C   0  0  0  0  0  0  0  0  0  0  0  0
  -14.2699  -17.6451    2.5234 C   0  0  0  0  0  0  0  0  0  0  0  0
  -12.9004  -18.3854    2.6986 C   0  0  0  0  0  0  0  0  0  0  0  0
  -11.9906  -17.9787    2.8821 C   0  0  0  0  0  0  0  0  0  0  0  0
  -11.8822  -17.0452    3.1337 C   0  0  0  0  0  0  0  0  0  0  0  0
  -11.0206  -16.9021    3.8893 N   0  0  0  0  0  0  0  0  0  0  0  0
  -10.6221  -16.6838    4.4892 C   0  0  0  0  0  0  0  0  0  0  0  0
  -10.3763  -16.7308    4.8908 C   0  0  0  0  0  0  0  0  0  0  0  0
  -10.3757  -16.7314    4.8909 C   0  0  0  0  0  0  0  0  0  0  0  0
  -10.6213  -16.6838    4.4893 C   0  0  0  0  0  0  0  0  0  0  0  0
  1  2  2  0
  2  3  1  0
  2  4  1  0
  4  5  4  0
  5  6  4  0
  6  7  4  0
  7  8  4  0
  8  9  4  0
  9 10  1  0
 10 11  4  0
 11 12  4  0
 12 13  4  0
 13 14  4  0
  9  4  4  0
 14 10  4  0
M  END
$$$$
