
     RDKit          3D

 29 31  0  0  0  0  0  0  0  0999 V2000
   -8.7230    8.4523   23.9377 C   0  0  0  0  0  0  0  0  0  0  0  0
   -8.8656    8.8737   23.4381 C   0  0  0  0  0  0  0  0  0  0  0  0
   -8.7165    8.4623   23.9395 C   0  0  0  0  0  0  0  0  0  0  0  0
   -9.1161    9.5917   22.6277 C   0  0  0  0  0  0  0  0  0  0  0  0
   -9.5587   10.2883   21.6766 C   0  0  0  0  0  0  0  0  0  0  0  0
   -8.9356   11.3313   20.6470 N   0  0  0  0  0  0  0  0  0  0  0  0
   -9.8200   12.0871   20.4297 C   0  0  0  0  0  0  0  0  0  0  0  0
  -11.0443   11.7775   20.8866 N   0  0  0  0  0  0  0  0  0  0  0  0
  -11.9140   12.6046   20.5169 C   0  0  0  0  0  0  0  0  0  0  0  0
  -13.0001   12.2310   20.9443 N   0  0  0  0  0  0  0  0  0  0  0  0
  -13.4484   11.3904   21.7502 C   0  0  0  0  0  0  0  0  0  0  0  0
  -14.1165   11.2120   22.1338 C   0  0  0  0  0  0  0  0  0  0  0  0
  -14.6597   10.4506   22.9807 C   0  0  0  0  0  0  0  0  0  0  0  0
  -15.1375   10.6486   23.3255 F   0  0  0  0  0  0  0  0  0  0  0  0
  -14.6577    9.6170   23.5732 C   0  0  0  0  0  0  0  0  0  0  0  0
  -15.0444    8.6632   24.2885 O   0  0  0  0  0  0  0  0  0  0  0  0
  -13.8285    9.8611   23.2601 C   0  0  0  0  0  0  0  0  0  0  0  0
  -13.8300    9.2809   23.9572 F   0  0  0  0  0  0  0  0  0  0  0  0
  -13.4205   10.6883   22.4376 C   0  0  0  0  0  0  0  0  0  0  0  0
  -11.7319   13.6987   19.7861 N   0  0  0  0  0  0  0  0  0  0  0  0
  -10.5129   14.0421   19.3375 C   0  0  0  0  0  0  0  0  0  0  0  0
   -9.5483   13.2364   19.6963 C   0  0  0  0  0  0  0  0  0  0  0  0
   -8.4214   13.6725   19.2528 N   0  0  0  0  0  0  0  0  0  0  0  0
   -7.7702   14.8743   18.5741 C   0  0  0  0  0  0  0  0  0  0  0  0
   -7.5248   12.9055   19.2671 C   0  0  0  0  0  0  0  0  0  0  0  0
   -6.5070   12.9245   18.8748 O   0  0  0  0  0  0  0  0  0  0  0  0
   -7.6550   11.5020   19.9141 C   0  0  0  0  0  0  0  0  0  0  0  0
   -6.9780   10.6712   19.9138 C   0  0  0  0  0  0  0  0  0  0  0  0
   -6.9933   10.6627   19.9332 C   0  0  0  0  0  0  0  0  0  0  0  0
  1  2  1  0
  2  3  1  0
  2  4  1  0
  4  5  1  0
  5  6  1  0
  6  7  1  0
  7  8  4  0
  8  9  4  0
  9 10  1  0
 10 11  1  0
 11 12  4  0
 12 13  4  0
 13 14  1  0
 13 15  4  0
 15 16  1  0
 15 17  4  0
 17 18  1  0
 17 19  4  0
  9 20  4  0
 20 21  4  0
 21 22  4  0
 22 23  1  0
 23 24  1  0
 23 25  1  0
 25 26  2  0
 25 27  1  0
 27 28  1  0
 27 29  1  0
 27  6  1  0
 22  7  4  0
 19 11  4  0
M  END
$$$$
