
     RDKit          3D

 48 50  0  0  0  0  0  0  0  0999 V2000
   23.8912   17.1540   17.8051 C   0  0  0  0  0  0  0  0  0  0  0  0
   23.6750   17.1350   17.6080 C   0  0  0  0  0  0  0  0  0  0  0  0
   23.8905   17.1564   17.8042 C   0  0  0  0  0  0  0  0  0  0  0  0
   23.1493   17.7323   17.4820 C   0  0  0  0  0  0  0  0  0  0  0  0
   22.7067   18.5607   17.7169 O   0  0  0  0  0  0  0  0  0  0  0  0
   22.3048   19.4407   17.3473 P   0  0  1  0  0  5  0  0  0  0  0  0
   22.4454   19.2935   17.2759 O   0  0  0  0  0  0  0  0  0  0  0  0
   22.2465   19.6720   16.5423 O   0  0  0  0  0  0  0  0  0  0  0  0
   21.7118   20.0119   18.4346 O   0  0  0  0  0  0  0  0  0  0  0  0
   20.8694   20.5300   18.9585 P   0  0  1  0  0  5  0  0  0  0  0  0
   20.6496   20.5293   18.8951 O   0  0  0  0  0  0  0  0  0  0  0  0
   20.2457   20.6454   18.7539 O   0  0  0  0  0  0  0  0  0  0  0  0
   20.8521   21.1431   19.5836 O   0  0  0  0  0  0  0  0  0  0  0  0
   20.5216   21.7772   19.8028 C   0  0  0  0  0  0  0  0  0  0  0  0
   20.8278   22.6102   19.8384 C   0  0  2  0  0  0  0  0  0  0  0  0
   22.0707   22.6569   20.2335 O   0  0  0  0  0  0  0  0  0  0  0  0
   22.2414   22.1585   19.7803 C   0  0  1  0  0  0  0  0  0  0  0  0
   23.5053   21.1338   19.3710 N   0  0  0  0  0  0  0  0  0  0  0  0
   23.8797   20.2863   19.7826 C   0  0  0  0  0  0  0  0  0  0  0  0
   24.9017   19.4909   19.4113 N   0  0  0  0  0  0  0  0  0  0  0  0
   25.2714   20.1249   18.6808 C   0  0  0  0  0  0  0  0  0  0  0  0
   26.6989   20.0423   17.9288 C   0  0  0  0  0  0  0  0  0  0  0  0
   27.4270   19.0584   18.2019 N   0  0  0  0  0  0  0  0  0  0  0  0
   26.7309   20.9327   16.6861 N   0  0  0  0  0  0  0  0  0  0  0  0
   25.8855   21.7883   16.7156 C   0  0  0  0  0  0  0  0  0  0  0  0
   24.9896   21.6483   17.4718 N   0  0  0  0  0  0  0  0  0  0  0  0
   24.5699   21.1748   18.5572 C   0  0  0  0  0  0  0  0  0  0  0  0
   20.8093   22.5644   19.8972 C   0  0  1  0  0  0  0  0  0  0  0  0
   20.4706   22.3425   20.4370 O   0  0  0  0  0  0  0  0  0  0  0  0
   20.3784   23.0954   19.7042 C   0  0  1  0  0  0  0  0  0  0  0  0
   19.6898   23.9259   19.6370 O   0  0  0  0  0  0  0  0  0  0  0  0
   18.8474   24.8799   19.3880 P   0  0  0  0  0  5  0  0  0  0  0  0
   18.6590   25.1240   19.1501 O   0  0  0  0  0  0  0  0  0  0  0  0
   18.4960   25.2449   19.0641 O   0  0  0  0  0  0  0  0  0  0  0  0
   18.4965   25.2438   19.0684 O   0  0  0  0  0  0  0  0  0  0  0  0
   24.0048   16.6393   17.6964 C   0  0  1  0  0  0  0  0  0  0  0  0
   24.0403   17.2364   18.2276 O   0  0  0  0  0  0  0  0  0  0  0  0
   24.2691   15.5204   17.3254 C   0  0  0  0  0  0  0  0  0  0  0  0
   24.0576   14.9081   16.6891 O   0  0  0  0  0  0  0  0  0  0  0  0
   24.8479   15.0865   17.6068 N   0  0  0  0  0  0  0  0  0  0  0  0
   25.6004   14.3516   17.5443 C   0  0  0  0  0  0  0  0  0  0  0  0
   26.7421   13.9785   17.1094 C   0  0  0  0  0  0  0  0  0  0  0  0
   28.0903   14.1755   16.7696 C   0  0  0  0  0  0  0  0  0  0  0  0
   28.2364   14.1120   17.0397 O   0  0  0  0  0  0  0  0  0  0  0  0
   29.0437   14.3948   16.3252 N   0  0  0  0  0  0  0  0  0  0  0  0
   30.2060   14.4757   16.0143 C   0  0  0  0  0  0  0  0  0  0  0  0
   31.3313   14.5130   15.9151 C   0  0  0  0  0  0  0  0  0  0  0  0
   32.0144   14.5146   15.9980 O   0  0  0  0  0  0  0  0  0  0  0  0
  1  2  1  0
  2  3  1  0
  2  4  1  0
  4  5  1  0
  5  6  1  0
  6  7  2  0
  6  8  1  6
  6  9  1  0
  9 10  1  0
 10 11  2  0
 10 12  1  6
 10 13  1  0
 13 14  1  0
 15 14  1  6
 15 16  1  0
 16 17  1  0
 17 18  1  1
 18 19  4  0
 19 20  4  0
 20 21  4  0
 21 22  4  0
 22 23  1  0
 22 24  4  0
 24 25  4  0
 25 26  4  0
 26 27  4  0
 17 28  1  0
 28 29  1  6
 28 30  1  0
 30 31  1  6
 31 32  1  0
 32 33  2  0
 32 34  1  0
 32 35  1  0
  2 36  1  0
 36 37  1  1
 36 38  1  0
 38 39  2  0
 38 40  1  0
 40 41  1  0
 41 42  1  0
 42 43  1  0
 43 44  2  0
 43 45  1  0
 45 46  1  0
 46 47  1  0
 47 48  1  0
 30 15  1  0
 27 18  4  0
 27 21  4  0
M  END
$$$$
